/*--------------------------------*- C++ -*----------------------------------*\
  =========                 |
  \\      /  F ield         | OpenFOAM: The Open Source CFD Toolbox
   \\    /   O peration     | Website:  https://openfoam.org
    \\  /    A nd           | Version:  13
     \\/     M anipulation  |
\*---------------------------------------------------------------------------*/
FoamFile
{
    format      ascii;
    class       surfaceLabelField;
    location    "constant/fvMesh";
    object      polyFaces;
}
// * * * * * * * * * * * * * * * * * * * * * * * * * * * * * * * * * * * * * //

dimensions      [];

internalField   uniform -1;

boundaryField
{
    OUTLET
    {
        type            polyFaces;
    }
    OUT_SHROUD
    {
        type            polyFaces;
    }
    OUT_HUB
    {
        type            polyFaces;
    }
    OUT_TO_ROTOR
    {
        type            polyFaces;
    }
    INLET
    {
        type            polyFaces;
    }
    IN_SHROUD
    {
        type            polyFaces;
    }
    IN_HUB
    {
        type            polyFaces;
    }
    IN_TO_ROTOR
    {
        type            polyFaces;
    }
    ROTOR_HUB
    {
        type            polyFaces;
    }
    ROTOR_SHROUD
    {
        type            polyFaces;
    }
    ROTOR_TO_IN
    {
        type            polyFaces;
    }
    ROTOR_TO_OUT
    {
        type            polyFaces;
    }
    nonConformalCyclic_on_ROTOR_TO_IN
    {
        type            nonConformalPolyFaces;
        patchType       nonConformalCyclic;
        size            28496;
        value           nonuniform List<label> 
28496
(
1590640
1590640
1590640
1590640
1590641
1590641
1590641
1590641
1590641
1590642
1590642
1590642
1590642
1590642
1590643
1590643
1590643
1590643
1590643
1590644
1590644
1590644
1590644
1590644
1590645
1590645
1590645
1590645
1590645
1590646
1590646
1590646
1590646
1590646
1590647
1590647
1590647
1590647
1590647
1590648
1590648
1590648
1590648
1590648
1590649
1590649
1590649
1590649
1590649
1590650
1590650
1590650
1590650
1590650
1590651
1590651
1590651
1590651
1590651
1590652
1590652
1590652
1590652
1590652
1590653
1590653
1590653
1590653
1590653
1590654
1590654
1590654
1590654
1590654
1590655
1590655
1590655
1590655
1590655
1590656
1590656
1590656
1590656
1590656
1590657
1590657
1590657
1590657
1590657
1590658
1590658
1590658
1590658
1590658
1590659
1590659
1590659
1590659
1590659
1590660
1590660
1590660
1590660
1590660
1590661
1590661
1590661
1590661
1590661
1590661
1590662
1590662
1590662
1590662
1590662
1590663
1590663
1590663
1590664
1590664
1590664
1590665
1590665
1590665
1590665
1590665
1590666
1590666
1590666
1590666
1590666
1590667
1590667
1590667
1590667
1590667
1590668
1590668
1590668
1590668
1590668
1590669
1590669
1590669
1590669
1590669
1590669
1590669
1590670
1590670
1590670
1590670
1590670
1590671
1590671
1590671
1590671
1590671
1590672
1590672
1590672
1590672
1590672
1590673
1590673
1590673
1590673
1590673
1590674
1590674
1590674
1590674
1590674
1590675
1590675
1590675
1590675
1590675
1590676
1590676
1590676
1590676
1590676
1590677
1590677
1590677
1590677
1590677
1590678
1590678
1590678
1590678
1590678
1590679
1590679
1590679
1590679
1590679
1590680
1590680
1590680
1590680
1590680
1590681
1590681
1590681
1590681
1590681
1590682
1590682
1590682
1590682
1590682
1590683
1590683
1590683
1590683
1590683
1590684
1590684
1590684
1590684
1590684
1590685
1590685
1590685
1590685
1590685
1590686
1590686
1590686
1590686
1590686
1590687
1590687
1590687
1590688
1590688
1590688
1590688
1590689
1590689
1590689
1590689
1590689
1590690
1590690
1590690
1590690
1590690
1590691
1590691
1590691
1590691
1590691
1590692
1590692
1590692
1590692
1590692
1590693
1590693
1590693
1590693
1590693
1590694
1590694
1590694
1590694
1590694
1590695
1590695
1590695
1590695
1590695
1590696
1590696
1590696
1590696
1590696
1590697
1590697
1590697
1590697
1590697
1590698
1590698
1590698
1590698
1590698
1590699
1590699
1590699
1590699
1590699
1590700
1590700
1590700
1590700
1590700
1590701
1590701
1590701
1590701
1590701
1590702
1590702
1590702
1590702
1590702
1590703
1590703
1590703
1590703
1590703
1590704
1590704
1590704
1590704
1590704
1590705
1590705
1590705
1590705
1590705
1590706
1590706
1590706
1590706
1590706
1590707
1590707
1590707
1590707
1590707
1590708
1590708
1590708
1590708
1590708
1590709
1590709
1590709
1590709
1590709
1590710
1590710
1590710
1590710
1590710
1590711
1590711
1590711
1590711
1590712
1590712
1590712
1590713
1590713
1590713
1590713
1590713
1590714
1590714
1590714
1590714
1590714
1590715
1590715
1590715
1590715
1590715
1590716
1590716
1590716
1590716
1590716
1590717
1590717
1590717
1590717
1590717
1590717
1590717
1590718
1590718
1590718
1590718
1590718
1590719
1590719
1590719
1590719
1590719
1590720
1590720
1590720
1590720
1590720
1590721
1590721
1590721
1590721
1590721
1590722
1590722
1590722
1590722
1590722
1590723
1590723
1590723
1590723
1590723
1590724
1590724
1590724
1590724
1590724
1590725
1590725
1590725
1590725
1590725
1590726
1590726
1590726
1590726
1590726
1590727
1590727
1590727
1590727
1590727
1590728
1590728
1590728
1590728
1590728
1590729
1590729
1590729
1590729
1590729
1590730
1590730
1590730
1590730
1590730
1590731
1590731
1590731
1590731
1590731
1590732
1590732
1590732
1590732
1590732
1590733
1590733
1590733
1590733
1590733
1590734
1590734
1590734
1590734
1590734
1590735
1590735
1590735
1590736
1590736
1590736
1590736
1590737
1590737
1590737
1590737
1590737
1590738
1590738
1590738
1590738
1590738
1590739
1590739
1590739
1590739
1590739
1590740
1590740
1590740
1590740
1590740
1590741
1590741
1590741
1590741
1590741
1590742
1590742
1590742
1590742
1590742
1590743
1590743
1590743
1590743
1590743
1590744
1590744
1590744
1590744
1590744
1590745
1590745
1590745
1590745
1590745
1590746
1590746
1590746
1590746
1590746
1590747
1590747
1590747
1590747
1590747
1590748
1590748
1590748
1590748
1590748
1590749
1590749
1590749
1590749
1590749
1590750
1590750
1590750
1590750
1590750
1590751
1590751
1590751
1590751
1590751
1590752
1590752
1590752
1590752
1590752
1590753
1590753
1590753
1590753
1590753
1590754
1590754
1590754
1590754
1590754
1590755
1590755
1590755
1590755
1590755
1590756
1590756
1590756
1590756
1590756
1590757
1590757
1590757
1590757
1590757
1590758
1590758
1590758
1590758
1590758
1590759
1590759
1590759
1590759
1590760
1590760
1590760
1590761
1590761
1590761
1590761
1590761
1590762
1590762
1590762
1590762
1590762
1590763
1590763
1590763
1590763
1590763
1590764
1590764
1590764
1590764
1590764
1590765
1590765
1590765
1590765
1590765
1590765
1590765
1590766
1590766
1590766
1590766
1590766
1590767
1590767
1590767
1590767
1590767
1590768
1590768
1590768
1590768
1590768
1590769
1590769
1590769
1590769
1590769
1590770
1590770
1590770
1590770
1590770
1590771
1590771
1590771
1590771
1590771
1590772
1590772
1590772
1590772
1590772
1590773
1590773
1590773
1590773
1590773
1590774
1590774
1590774
1590774
1590774
1590775
1590775
1590775
1590775
1590775
1590776
1590776
1590776
1590776
1590776
1590777
1590777
1590777
1590777
1590777
1590778
1590778
1590778
1590778
1590778
1590779
1590779
1590779
1590779
1590779
1590780
1590780
1590780
1590780
1590780
1590781
1590781
1590781
1590781
1590781
1590782
1590782
1590782
1590782
1590782
1590783
1590783
1590783
1590784
1590784
1590784
1590784
1590785
1590785
1590785
1590785
1590785
1590786
1590786
1590786
1590786
1590786
1590787
1590787
1590787
1590787
1590787
1590788
1590788
1590788
1590788
1590788
1590789
1590789
1590789
1590789
1590789
1590790
1590790
1590790
1590790
1590790
1590791
1590791
1590791
1590791
1590791
1590792
1590792
1590792
1590792
1590792
1590793
1590793
1590793
1590793
1590793
1590794
1590794
1590794
1590794
1590794
1590795
1590795
1590795
1590795
1590795
1590796
1590796
1590796
1590796
1590796
1590797
1590797
1590797
1590797
1590797
1590798
1590798
1590798
1590798
1590798
1590799
1590799
1590799
1590799
1590799
1590800
1590800
1590800
1590800
1590800
1590801
1590801
1590801
1590801
1590801
1590802
1590802
1590802
1590802
1590802
1590803
1590803
1590803
1590803
1590803
1590804
1590804
1590804
1590804
1590804
1590805
1590805
1590805
1590805
1590805
1590806
1590806
1590806
1590806
1590806
1590807
1590807
1590807
1590807
1590808
1590808
1590808
1590809
1590809
1590809
1590809
1590809
1590810
1590810
1590810
1590810
1590810
1590811
1590811
1590811
1590811
1590811
1590812
1590812
1590812
1590812
1590812
1590813
1590813
1590813
1590813
1590813
1590813
1590813
1590814
1590814
1590814
1590814
1590814
1590815
1590815
1590815
1590815
1590815
1590816
1590816
1590816
1590816
1590816
1590817
1590817
1590817
1590817
1590817
1590818
1590818
1590818
1590818
1590818
1590819
1590819
1590819
1590819
1590819
1590820
1590820
1590820
1590820
1590820
1590821
1590821
1590821
1590821
1590821
1590822
1590822
1590822
1590822
1590822
1590823
1590823
1590823
1590823
1590823
1590824
1590824
1590824
1590824
1590824
1590824
1590825
1590825
1590825
1590825
1590825
1590825
1590826
1590826
1590826
1590826
1590826
1590826
1590827
1590827
1590827
1590827
1590827
1590827
1590828
1590828
1590828
1590828
1590828
1590828
1590829
1590829
1590829
1590829
1590829
1590829
1590830
1590830
1590830
1590830
1590830
1590830
1590831
1590831
1590831
1590831
1590832
1590832
1590832
1590832
1590833
1590833
1590833
1590833
1590833
1590834
1590834
1590834
1590834
1590834
1590835
1590835
1590835
1590835
1590835
1590836
1590836
1590836
1590836
1590836
1590837
1590837
1590837
1590837
1590837
1590838
1590838
1590838
1590838
1590838
1590839
1590839
1590839
1590839
1590839
1590840
1590840
1590840
1590840
1590840
1590841
1590841
1590841
1590841
1590841
1590842
1590842
1590842
1590842
1590842
1590843
1590843
1590843
1590843
1590843
1590844
1590844
1590844
1590844
1590844
1590845
1590845
1590845
1590845
1590845
1590846
1590846
1590846
1590846
1590846
1590847
1590847
1590847
1590847
1590848
1590848
1590848
1590848
1590849
1590849
1590849
1590849
1590850
1590850
1590850
1590850
1590851
1590851
1590851
1590851
1590852
1590852
1590852
1590852
1590853
1590853
1590853
1590853
1590854
1590854
1590854
1590854
1590855
1590855
1590855
1590855
1590856
1590856
1590857
1590857
1590857
1590857
1590858
1590858
1590858
1590858
1590859
1590859
1590859
1590859
1590860
1590860
1590860
1590860
1590861
1590861
1590861
1590861
1590861
1590862
1590862
1590862
1590862
1590863
1590863
1590863
1590863
1590864
1590864
1590864
1590864
1590865
1590865
1590865
1590865
1590865
1590865
1590866
1590866
1590866
1590866
1590866
1590866
1590867
1590867
1590867
1590867
1590867
1590867
1590868
1590868
1590868
1590868
1590868
1590868
1590869
1590869
1590869
1590869
1590869
1590869
1590870
1590870
1590870
1590870
1590870
1590870
1590871
1590871
1590871
1590871
1590871
1590871
1590872
1590872
1590872
1590872
1590872
1590872
1590873
1590873
1590873
1590873
1590873
1590873
1590874
1590874
1590874
1590874
1590874
1590874
1590875
1590875
1590875
1590875
1590875
1590875
1590876
1590876
1590876
1590876
1590876
1590876
1590877
1590877
1590877
1590877
1590877
1590877
1590878
1590878
1590878
1590878
1590878
1590878
1590879
1590879
1590879
1590879
1590880
1590880
1590880
1590881
1590881
1590881
1590881
1590881
1590882
1590882
1590882
1590882
1590882
1590883
1590883
1590883
1590883
1590883
1590884
1590884
1590884
1590884
1590884
1590885
1590885
1590885
1590885
1590885
1590885
1590885
1590886
1590886
1590886
1590886
1590886
1590887
1590887
1590887
1590887
1590887
1590888
1590888
1590888
1590888
1590888
1590889
1590889
1590889
1590889
1590889
1590890
1590890
1590890
1590890
1590890
1590891
1590891
1590891
1590891
1590891
1590892
1590892
1590892
1590892
1590892
1590893
1590893
1590893
1590893
1590893
1590894
1590894
1590894
1590894
1590894
1590895
1590895
1590895
1590895
1590895
1590896
1590896
1590896
1590896
1590896
1590897
1590897
1590897
1590897
1590897
1590898
1590898
1590898
1590898
1590898
1590899
1590899
1590899
1590899
1590899
1590900
1590900
1590900
1590900
1590900
1590901
1590901
1590901
1590901
1590901
1590902
1590902
1590902
1590902
1590902
1590903
1590903
1590903
1590904
1590904
1590904
1590904
1590905
1590905
1590905
1590905
1590905
1590906
1590906
1590906
1590906
1590906
1590907
1590907
1590907
1590907
1590907
1590908
1590908
1590908
1590908
1590908
1590909
1590909
1590909
1590909
1590910
1590910
1590910
1590910
1590911
1590911
1590911
1590911
1590911
1590912
1590912
1590912
1590912
1590912
1590913
1590913
1590913
1590913
1590913
1590914
1590914
1590914
1590914
1590914
1590915
1590915
1590915
1590915
1590915
1590916
1590916
1590916
1590916
1590916
1590917
1590917
1590917
1590917
1590917
1590917
1590918
1590918
1590918
1590918
1590918
1590919
1590919
1590919
1590919
1590919
1590920
1590920
1590920
1590920
1590920
1590921
1590921
1590921
1590921
1590921
1590922
1590922
1590922
1590922
1590922
1590923
1590923
1590923
1590923
1590923
1590924
1590924
1590924
1590924
1590924
1590925
1590925
1590925
1590925
1590925
1590926
1590926
1590926
1590926
1590926
1590927
1590927
1590927
1590928
1590928
1590928
1590929
1590929
1590929
1590929
1590929
1590930
1590930
1590930
1590930
1590930
1590931
1590931
1590931
1590931
1590931
1590932
1590932
1590932
1590932
1590932
1590933
1590933
1590933
1590933
1590933
1590934
1590934
1590934
1590934
1590934
1590934
1590934
1590935
1590935
1590935
1590935
1590935
1590936
1590936
1590936
1590936
1590936
1590937
1590937
1590937
1590937
1590937
1590938
1590938
1590938
1590938
1590938
1590939
1590939
1590939
1590939
1590939
1590940
1590940
1590940
1590940
1590940
1590941
1590941
1590941
1590941
1590941
1590942
1590942
1590942
1590942
1590942
1590943
1590943
1590943
1590943
1590943
1590944
1590944
1590944
1590944
1590944
1590945
1590945
1590945
1590945
1590945
1590946
1590946
1590946
1590946
1590946
1590947
1590947
1590947
1590947
1590947
1590948
1590948
1590948
1590948
1590948
1590949
1590949
1590949
1590949
1590949
1590950
1590950
1590950
1590950
1590950
1590951
1590951
1590951
1590952
1590952
1590952
1590952
1590953
1590953
1590953
1590953
1590953
1590954
1590954
1590954
1590954
1590954
1590955
1590955
1590955
1590955
1590955
1590956
1590956
1590956
1590956
1590956
1590957
1590957
1590957
1590957
1590957
1590958
1590958
1590958
1590958
1590958
1590959
1590959
1590959
1590959
1590959
1590960
1590960
1590960
1590960
1590960
1590961
1590961
1590961
1590961
1590961
1590962
1590962
1590962
1590962
1590962
1590963
1590963
1590963
1590963
1590963
1590964
1590964
1590964
1590964
1590964
1590965
1590965
1590965
1590965
1590965
1590966
1590966
1590966
1590966
1590966
1590967
1590967
1590967
1590967
1590967
1590968
1590968
1590968
1590968
1590968
1590969
1590969
1590969
1590969
1590969
1590970
1590970
1590970
1590970
1590970
1590971
1590971
1590971
1590971
1590971
1590972
1590972
1590972
1590972
1590972
1590973
1590973
1590973
1590973
1590973
1590974
1590974
1590974
1590974
1590974
1590975
1590975
1590975
1590975
1590976
1590976
1590977
1590977
1590977
1590977
1590978
1590978
1590978
1590978
1590979
1590979
1590979
1590979
1590980
1590980
1590980
1590980
1590981
1590981
1590981
1590981
1590982
1590982
1590982
1590982
1590982
1590983
1590983
1590983
1590983
1590984
1590984
1590984
1590984
1590985
1590985
1590985
1590985
1590985
1590985
1590986
1590986
1590986
1590986
1590986
1590986
1590987
1590987
1590987
1590987
1590987
1590987
1590988
1590988
1590988
1590988
1590988
1590988
1590989
1590989
1590989
1590989
1590989
1590989
1590990
1590990
1590990
1590990
1590990
1590990
1590991
1590991
1590991
1590991
1590991
1590991
1590992
1590992
1590992
1590992
1590992
1590992
1590993
1590993
1590993
1590993
1590993
1590993
1590994
1590994
1590994
1590994
1590994
1590994
1590995
1590995
1590995
1590995
1590995
1590995
1590996
1590996
1590996
1590996
1590996
1590996
1590997
1590997
1590997
1590997
1590997
1590997
1590998
1590998
1590998
1590998
1590998
1590998
1590999
1590999
1590999
1590999
1591000
1591000
1591000
1591001
1591001
1591001
1591001
1591001
1591002
1591002
1591002
1591002
1591002
1591003
1591003
1591003
1591003
1591003
1591004
1591004
1591004
1591004
1591004
1591005
1591005
1591005
1591005
1591005
1591006
1591006
1591006
1591006
1591006
1591006
1591006
1591007
1591007
1591007
1591007
1591007
1591008
1591008
1591008
1591008
1591008
1591009
1591009
1591009
1591009
1591009
1591010
1591010
1591010
1591010
1591010
1591011
1591011
1591011
1591011
1591011
1591012
1591012
1591012
1591012
1591012
1591013
1591013
1591013
1591013
1591013
1591014
1591014
1591014
1591014
1591014
1591015
1591015
1591015
1591015
1591015
1591016
1591016
1591016
1591016
1591016
1591017
1591017
1591017
1591017
1591017
1591018
1591018
1591018
1591018
1591018
1591019
1591019
1591019
1591019
1591019
1591020
1591020
1591020
1591020
1591020
1591021
1591021
1591021
1591021
1591021
1591022
1591022
1591022
1591022
1591022
1591023
1591023
1591023
1591024
1591024
1591024
1591024
1591025
1591025
1591025
1591025
1591025
1591026
1591026
1591026
1591026
1591026
1591027
1591027
1591027
1591027
1591027
1591028
1591028
1591028
1591028
1591028
1591029
1591029
1591029
1591029
1591029
1591030
1591030
1591030
1591030
1591030
1591031
1591031
1591031
1591031
1591031
1591032
1591032
1591032
1591032
1591032
1591033
1591033
1591033
1591033
1591033
1591034
1591034
1591034
1591034
1591034
1591035
1591035
1591035
1591035
1591035
1591036
1591036
1591036
1591036
1591036
1591037
1591037
1591037
1591037
1591037
1591038
1591038
1591038
1591038
1591038
1591039
1591039
1591039
1591039
1591039
1591039
1591040
1591040
1591040
1591040
1591040
1591041
1591041
1591041
1591041
1591041
1591042
1591042
1591042
1591042
1591042
1591043
1591043
1591043
1591043
1591043
1591044
1591044
1591044
1591044
1591044
1591045
1591045
1591045
1591045
1591045
1591046
1591046
1591046
1591046
1591046
1591047
1591047
1591047
1591048
1591048
1591048
1591049
1591049
1591049
1591049
1591049
1591050
1591050
1591050
1591050
1591050
1591051
1591051
1591051
1591051
1591051
1591052
1591052
1591052
1591052
1591052
1591053
1591053
1591053
1591053
1591053
1591054
1591054
1591054
1591054
1591054
1591054
1591054
1591055
1591055
1591055
1591055
1591055
1591056
1591056
1591056
1591056
1591056
1591057
1591057
1591057
1591057
1591057
1591058
1591058
1591058
1591058
1591058
1591059
1591059
1591059
1591059
1591059
1591060
1591060
1591060
1591060
1591060
1591061
1591061
1591061
1591061
1591061
1591062
1591062
1591062
1591062
1591062
1591063
1591063
1591063
1591063
1591063
1591064
1591064
1591064
1591064
1591064
1591065
1591065
1591065
1591065
1591065
1591066
1591066
1591066
1591066
1591066
1591067
1591067
1591067
1591067
1591067
1591068
1591068
1591068
1591068
1591068
1591068
1591069
1591069
1591069
1591069
1591069
1591069
1591070
1591070
1591070
1591070
1591070
1591070
1591071
1591071
1591071
1591071
1591072
1591072
1591072
1591072
1591073
1591073
1591073
1591073
1591073
1591074
1591074
1591074
1591074
1591074
1591075
1591075
1591075
1591075
1591075
1591076
1591076
1591076
1591076
1591077
1591077
1591077
1591077
1591078
1591078
1591078
1591078
1591078
1591079
1591079
1591079
1591079
1591080
1591080
1591080
1591080
1591081
1591081
1591081
1591081
1591081
1591082
1591082
1591082
1591082
1591082
1591083
1591083
1591083
1591083
1591083
1591084
1591084
1591084
1591084
1591084
1591085
1591085
1591085
1591085
1591085
1591086
1591086
1591086
1591086
1591086
1591087
1591087
1591087
1591087
1591087
1591088
1591088
1591088
1591088
1591088
1591089
1591089
1591089
1591089
1591089
1591090
1591090
1591090
1591090
1591090
1591091
1591091
1591091
1591091
1591091
1591092
1591092
1591092
1591092
1591092
1591092
1591093
1591093
1591093
1591093
1591093
1591093
1591094
1591094
1591094
1591094
1591094
1591094
1591095
1591095
1591095
1591095
1591096
1591096
1591096
1591096
1591097
1591097
1591097
1591097
1591097
1591097
1591098
1591098
1591098
1591098
1591098
1591098
1591099
1591099
1591099
1591099
1591099
1591099
1591100
1591100
1591100
1591100
1591100
1591101
1591101
1591101
1591101
1591101
1591102
1591102
1591102
1591102
1591102
1591103
1591103
1591103
1591103
1591103
1591104
1591104
1591104
1591104
1591105
1591105
1591105
1591105
1591106
1591106
1591106
1591106
1591107
1591107
1591107
1591107
1591108
1591108
1591108
1591108
1591109
1591109
1591109
1591109
1591109
1591109
1591110
1591110
1591110
1591110
1591110
1591110
1591111
1591111
1591111
1591111
1591111
1591111
1591112
1591112
1591112
1591112
1591112
1591112
1591113
1591113
1591113
1591113
1591113
1591113
1591114
1591114
1591114
1591114
1591114
1591114
1591115
1591115
1591115
1591115
1591115
1591115
1591116
1591116
1591116
1591116
1591116
1591116
1591117
1591117
1591117
1591117
1591117
1591117
1591118
1591118
1591118
1591118
1591118
1591118
1591119
1591119
1591119
1591119
1591120
1591120
1591120
1591121
1591121
1591121
1591121
1591121
1591122
1591122
1591122
1591122
1591122
1591123
1591123
1591123
1591123
1591123
1591124
1591124
1591124
1591124
1591124
1591125
1591125
1591125
1591125
1591125
1591126
1591126
1591126
1591126
1591126
1591127
1591127
1591127
1591127
1591127
1591128
1591128
1591128
1591128
1591128
1591129
1591129
1591129
1591129
1591129
1591130
1591130
1591130
1591130
1591130
1591131
1591131
1591131
1591131
1591131
1591132
1591132
1591132
1591132
1591132
1591133
1591133
1591133
1591133
1591133
1591134
1591134
1591134
1591134
1591134
1591135
1591135
1591135
1591135
1591135
1591136
1591136
1591136
1591136
1591136
1591137
1591137
1591137
1591137
1591137
1591137
1591138
1591138
1591138
1591138
1591138
1591138
1591139
1591139
1591139
1591139
1591139
1591139
1591140
1591140
1591140
1591140
1591140
1591140
1591141
1591141
1591141
1591141
1591141
1591141
1591142
1591142
1591142
1591142
1591142
1591142
1591143
1591143
1591143
1591143
1591144
1591144
1591144
1591144
1591145
1591145
1591145
1591145
1591146
1591146
1591146
1591146
1591147
1591147
1591147
1591147
1591148
1591148
1591148
1591148
1591149
1591149
1591149
1591149
1591150
1591150
1591150
1591150
1591151
1591151
1591151
1591151
1591151
1591152
1591152
1591152
1591152
1591153
1591153
1591153
1591153
1591154
1591154
1591154
1591154
1591155
1591155
1591155
1591155
1591156
1591156
1591156
1591156
1591157
1591157
1591157
1591157
1591158
1591158
1591158
1591158
1591159
1591159
1591159
1591159
1591160
1591160
1591160
1591160
1591161
1591161
1591161
1591161
1591161
1591162
1591162
1591162
1591162
1591162
1591163
1591163
1591163
1591163
1591163
1591164
1591164
1591164
1591164
1591164
1591165
1591165
1591165
1591165
1591165
1591166
1591166
1591166
1591166
1591166
1591167
1591167
1591167
1591168
1591168
1591168
1591168
1591169
1591169
1591169
1591169
1591169
1591170
1591170
1591170
1591170
1591170
1591171
1591171
1591171
1591171
1591171
1591172
1591172
1591172
1591172
1591172
1591173
1591173
1591173
1591173
1591173
1591174
1591174
1591174
1591174
1591174
1591175
1591175
1591175
1591175
1591175
1591176
1591176
1591176
1591176
1591176
1591177
1591177
1591177
1591177
1591177
1591178
1591178
1591178
1591178
1591178
1591179
1591179
1591179
1591179
1591179
1591180
1591180
1591180
1591180
1591180
1591181
1591181
1591181
1591181
1591181
1591182
1591182
1591182
1591182
1591182
1591183
1591183
1591183
1591183
1591183
1591184
1591184
1591184
1591184
1591184
1591185
1591185
1591185
1591185
1591185
1591185
1591186
1591186
1591186
1591186
1591186
1591187
1591187
1591187
1591187
1591187
1591188
1591188
1591188
1591188
1591188
1591189
1591189
1591189
1591189
1591190
1591190
1591190
1591190
1591190
1591191
1591191
1591191
1591191
1591192
1591192
1591192
1591192
1591193
1591193
1591193
1591193
1591193
1591193
1591194
1591194
1591194
1591194
1591194
1591194
1591195
1591195
1591195
1591195
1591195
1591195
1591196
1591196
1591196
1591196
1591197
1591197
1591197
1591197
1591198
1591198
1591198
1591198
1591199
1591199
1591199
1591199
1591199
1591200
1591200
1591200
1591200
1591201
1591201
1591201
1591201
1591201
1591201
1591202
1591202
1591202
1591202
1591202
1591202
1591203
1591203
1591203
1591203
1591203
1591203
1591204
1591204
1591204
1591204
1591204
1591204
1591205
1591205
1591205
1591205
1591205
1591205
1591206
1591206
1591206
1591206
1591206
1591206
1591207
1591207
1591207
1591207
1591207
1591207
1591208
1591208
1591208
1591208
1591208
1591208
1591209
1591209
1591209
1591209
1591209
1591209
1591210
1591210
1591210
1591210
1591210
1591210
1591211
1591211
1591211
1591211
1591211
1591211
1591212
1591212
1591212
1591212
1591212
1591212
1591213
1591213
1591213
1591213
1591213
1591213
1591214
1591214
1591214
1591214
1591214
1591214
1591215
1591215
1591215
1591215
1591216
1591216
1591216
1591217
1591217
1591217
1591217
1591217
1591218
1591218
1591218
1591218
1591218
1591219
1591219
1591219
1591219
1591219
1591220
1591220
1591220
1591220
1591220
1591221
1591221
1591221
1591221
1591221
1591222
1591222
1591222
1591222
1591222
1591223
1591223
1591223
1591223
1591223
1591223
1591223
1591224
1591224
1591224
1591224
1591224
1591225
1591225
1591225
1591225
1591225
1591226
1591226
1591226
1591226
1591226
1591227
1591227
1591227
1591227
1591227
1591228
1591228
1591228
1591228
1591228
1591229
1591229
1591229
1591229
1591229
1591230
1591230
1591230
1591230
1591230
1591231
1591231
1591231
1591231
1591231
1591232
1591232
1591232
1591232
1591232
1591233
1591233
1591233
1591233
1591233
1591234
1591234
1591234
1591234
1591234
1591235
1591235
1591235
1591235
1591235
1591236
1591236
1591236
1591236
1591236
1591237
1591237
1591237
1591237
1591237
1591238
1591238
1591238
1591238
1591238
1591239
1591239
1591239
1591239
1591240
1591240
1591240
1591240
1591241
1591241
1591241
1591241
1591241
1591242
1591242
1591242
1591242
1591243
1591243
1591243
1591243
1591244
1591244
1591244
1591244
1591245
1591245
1591245
1591245
1591246
1591246
1591246
1591246
1591247
1591247
1591247
1591248
1591248
1591248
1591248
1591249
1591249
1591249
1591249
1591250
1591250
1591250
1591250
1591251
1591251
1591251
1591251
1591252
1591252
1591252
1591252
1591253
1591253
1591253
1591253
1591254
1591254
1591254
1591254
1591255
1591255
1591255
1591255
1591256
1591256
1591256
1591256
1591257
1591257
1591257
1591257
1591258
1591258
1591258
1591258
1591259
1591259
1591259
1591259
1591260
1591260
1591260
1591260
1591261
1591261
1591261
1591261
1591262
1591262
1591262
1591262
1591263
1591263
1591263
1591264
1591264
1591264
1591264
1591265
1591265
1591265
1591265
1591265
1591265
1591266
1591266
1591266
1591266
1591266
1591267
1591267
1591267
1591267
1591267
1591268
1591268
1591268
1591268
1591268
1591269
1591269
1591269
1591269
1591269
1591270
1591270
1591270
1591270
1591270
1591271
1591271
1591271
1591271
1591271
1591272
1591272
1591272
1591272
1591272
1591273
1591273
1591273
1591273
1591273
1591274
1591274
1591274
1591274
1591274
1591275
1591275
1591275
1591275
1591275
1591276
1591276
1591276
1591276
1591276
1591277
1591277
1591277
1591277
1591277
1591278
1591278
1591278
1591278
1591278
1591279
1591279
1591279
1591279
1591279
1591279
1591280
1591280
1591280
1591280
1591280
1591281
1591281
1591281
1591281
1591281
1591282
1591282
1591282
1591282
1591282
1591283
1591283
1591283
1591283
1591283
1591284
1591284
1591284
1591284
1591284
1591285
1591285
1591285
1591285
1591285
1591286
1591286
1591286
1591286
1591287
1591287
1591287
1591287
1591288
1591288
1591288
1591288
1591289
1591289
1591289
1591289
1591289
1591289
1591290
1591290
1591290
1591290
1591290
1591290
1591291
1591291
1591291
1591291
1591291
1591291
1591292
1591292
1591292
1591292
1591292
1591292
1591293
1591293
1591293
1591293
1591293
1591293
1591294
1591294
1591294
1591294
1591295
1591295
1591295
1591295
1591296
1591296
1591296
1591296
1591296
1591297
1591297
1591297
1591297
1591298
1591298
1591298
1591298
1591298
1591298
1591299
1591299
1591299
1591299
1591299
1591299
1591300
1591300
1591300
1591300
1591300
1591300
1591301
1591301
1591301
1591301
1591301
1591301
1591302
1591302
1591302
1591302
1591302
1591302
1591303
1591303
1591303
1591303
1591303
1591303
1591304
1591304
1591304
1591304
1591304
1591304
1591305
1591305
1591305
1591305
1591305
1591305
1591306
1591306
1591306
1591306
1591306
1591306
1591307
1591307
1591307
1591307
1591307
1591307
1591308
1591308
1591308
1591308
1591308
1591308
1591309
1591309
1591309
1591309
1591309
1591309
1591310
1591310
1591310
1591310
1591310
1591310
1591311
1591311
1591311
1591311
1591312
1591312
1591312
1591312
1591313
1591313
1591313
1591313
1591313
1591313
1591314
1591314
1591314
1591314
1591314
1591314
1591315
1591315
1591315
1591315
1591315
1591315
1591316
1591316
1591316
1591316
1591316
1591316
1591317
1591317
1591317
1591317
1591317
1591317
1591318
1591318
1591318
1591318
1591319
1591319
1591319
1591319
1591320
1591320
1591320
1591320
1591321
1591321
1591321
1591322
1591322
1591322
1591322
1591322
1591322
1591323
1591323
1591323
1591323
1591323
1591323
1591324
1591324
1591324
1591324
1591324
1591324
1591325
1591325
1591325
1591325
1591325
1591325
1591326
1591326
1591326
1591326
1591326
1591326
1591327
1591327
1591327
1591327
1591327
1591327
1591328
1591328
1591328
1591328
1591328
1591328
1591329
1591329
1591329
1591329
1591329
1591329
1591330
1591330
1591330
1591330
1591330
1591330
1591331
1591331
1591331
1591331
1591331
1591331
1591332
1591332
1591332
1591332
1591332
1591332
1591333
1591333
1591333
1591333
1591333
1591333
1591334
1591334
1591334
1591334
1591334
1591334
1591335
1591335
1591335
1591335
1591336
1591336
1591336
1591337
1591337
1591337
1591337
1591337
1591338
1591338
1591338
1591338
1591338
1591339
1591339
1591339
1591339
1591339
1591340
1591340
1591340
1591340
1591340
1591341
1591341
1591341
1591341
1591341
1591342
1591342
1591342
1591342
1591342
1591343
1591343
1591343
1591343
1591343
1591344
1591344
1591344
1591344
1591344
1591345
1591345
1591345
1591345
1591345
1591345
1591345
1591346
1591346
1591346
1591346
1591346
1591347
1591347
1591347
1591347
1591347
1591348
1591348
1591348
1591348
1591348
1591349
1591349
1591349
1591349
1591349
1591350
1591350
1591350
1591350
1591350
1591351
1591351
1591351
1591351
1591351
1591352
1591352
1591352
1591352
1591352
1591353
1591353
1591353
1591353
1591353
1591354
1591354
1591354
1591354
1591354
1591355